Circuit: *** SPICE deck for cell 2_bit_lay{lay} from library 2_bit_comparator

Ignoring BSIM parameter XL
Ignoring BSIM parameter XW
Ignoring BSIM parameter XL
Ignoring BSIM parameter XW
Vin3: Removing PWL point (3e-008,5)
Vin1: Removing PWL point (3e-008,5)
Direct Newton iteration for .op point succeeded.

tf_g=5.63072e-008 FROM 4.36928e-008 TO 1e-007
tr_g=8.76133e-008 FROM 1.23867e-008 TO 1e-007
tf_l=8.9794e-008 FROM 1.0206e-008 TO 1e-007
tr_l=8.85021e-008 FROM 1.14979e-008 TO 1e-007
tf_e=8.69406e-008 FROM 1.30594e-008 TO 1e-007
tr_e=8.91343e-008 FROM 1.08657e-008 TO 1e-007


Date: Tue Aug 20 21:01:29 2024
Total elapsed time: 0.468 seconds.

tnom = 27
temp = 27
method = modified trap
totiter = 2676
traniter = 2641
tranpoints = 1198
accept = 1138
rejected = 60
matrix size = 44
fillins = 42
solver = Normal
Thread vector: 77.0/32.3[6] 22.3/7.2[6] 5.8/3.1[6] 0.3/1.6[1]  2592/500
Matrix Compiler1: 6.67 KB object code size  2.3/1.0/[0.7]
Matrix Compiler2: 5.77 KB object code size  0.8/1.3/[0.6]


