Circuit: *** SPICE deck for cell 4_bit_lay{lay} from library 4-bit-comparator

Ignoring BSIM parameter XL
Ignoring BSIM parameter XW
Ignoring BSIM parameter XL
Ignoring BSIM parameter XW
Vin5: Removing PWL point (3e-008,5)
Vin1: Removing PWL point (3e-008,5)
Direct Newton iteration for .op point succeeded.

tf_g=5.5944e-008 FROM 4.4056e-008 TO 1e-007
tr_g=8.71259e-008 FROM 1.28741e-008 TO 1e-007
tf_l=8.94502e-008 FROM 1.05498e-008 TO 1e-007
tr_l=8.54519e-008 FROM 1.45481e-008 TO 1e-007

Measurement "tf_e" FAIL'ed
tr_e=5.52682e-008 FROM 4.47318e-008 TO 1e-007


Date: Tue Aug 20 21:14:55 2024
Total elapsed time: 1.079 seconds.

tnom = 27
temp = 27
method = modified trap
totiter = 3144
traniter = 3102
tranpoints = 1324
accept = 1218
rejected = 106
matrix size = 100
fillins = 130
solver = Normal
Thread vector: 501.4/76.4[12] 70.2/19.3[12] 18.6/11.1[3] 0.7/2.8[1]  2592/500
Matrix Compiler1: 18.4 KB object code size  8.6/5.8/[2.4]
Matrix Compiler2: 14.0 KB object code size  4.0/3.9/[1.1]


