Circuit: *** SPICE deck for cell 4bitAND_lay{lay} from library 4bitAND

Ignoring BSIM parameter XL
Ignoring BSIM parameter XW
Ignoring BSIM parameter XL
Ignoring BSIM parameter XW
WARNING: Node NMOS@4_POLY-LEFT is floating.

WARNING: Less than two connections to node NMOS@4_POLY-LEFT.  This node is used by MNMOS@4.
Direct Newton iteration for .op point succeeded.


Measurement "tf" FAIL'ed

Measurement "tr" FAIL'ed


Date: Sun Aug 18 14:24:42 2024
Total elapsed time: 0.125 seconds.

tnom = 27
temp = 27
method = modified trap
totiter = 2697
traniter = 2667
tranpoints = 1156
accept = 1120
rejected = 36
matrix size = 16
fillins = 0
solver = Normal
Matrix Compiler1: 754 bytes object code size  0.2/0.1/[0.1]
Matrix Compiler2: off  [0.1]/0.1/0.2


