Circuit: *** SPICE deck for cell 4Bit_OR{sch} from library 4Bit_OR

