Circuit: *** SPICE deck for cell 8_bit_sch{sch} from library 8-bit-comparator

Ignoring BSIM parameter XL
Ignoring BSIM parameter XW
Ignoring BSIM parameter XL
Ignoring BSIM parameter XW
Vin13: Removing PWL point (3e-008,5)
Vin9: Removing PWL point (3e-008,5)
Vin5: Removing PWL point (3e-008,5)
Vin1: Removing PWL point (3e-008,5)
Warning: Pd = 0 is less than W.
Warning: Ps = 0 is less than W.
Warning: Pd = 0 is less than W.
Warning: Ps = 0 is less than W.
Warning: Pd = 0 is less than W.
Warning: Ps = 0 is less than W.
Warning: Pd = 0 is less than W.
Warning: Ps = 0 is less than W.
Warning: Pd = 0 is less than W.
Warning: Ps = 0 is less than W.
Warning: Pd = 0 is less than W.
Warning: Ps = 0 is less than W.
Early termination of direct N-R iteration.
Direct Newton iteration failed to find .op point.  (Use ".option noopiter" to skip.)
Starting Gmin stepping
Gmin = 10
Gmin = 1.07374
Gmin = 0.115292
Gmin = 0.0123794
Gmin = 0.00132923
Gmin = 0.000142725
Gmin = 1.5325e-005
Gmin = 1.6455e-006
Gmin = 1.76685e-007
Gmin = 1.89714e-008
Gmin = 2.03704e-009
Gmin = 2.18725e-010
Gmin = 2.34854e-011
Gmin = 2.52173e-012
Gmin = 2.70769e-013
Gmin = 0
Gmin stepping succeeded in finding the operating point.


tf_g=5.35267e-008 FROM 4.64733e-008 TO 1e-007
tr_g=8.87596e-008 FROM 1.12404e-008 TO 1e-007
tf_l=8.89337e-008 FROM 1.10663e-008 TO 1e-007
tr_l=8.78309e-008 FROM 1.21691e-008 TO 1e-007

Measurement "tf_e" FAIL'ed
tr_e=5.34455e-008 FROM 4.65545e-008 TO 1e-007


Date: Tue Aug 20 06:06:23 2024
Total elapsed time: 1.585 seconds.

tnom = 27
temp = 27
method = modified trap
totiter = 4418
traniter = 4025
tranpoints = 1514
accept = 1351
rejected = 163
matrix size = 207
fillins = 458
solver = Normal
Thread vector: 438.8/102.9[12] 196.4/29.3[12] 60.5/18.5[12] 3.3/8.0[1]  2592/500
Matrix Compiler1: 64.1 KB object code size  35.0/17.5/[9.5]
Matrix Compiler2: 33.3 KB object code size  15.5/13.5/[3.9]


