Circuit: *** SPICE deck for cell 8_bit_lay{lay} from library 8-bit-comparator

Ignoring BSIM parameter XL
Ignoring BSIM parameter XW
Ignoring BSIM parameter XL
Ignoring BSIM parameter XW
Vin13: Removing PWL point (3e-008,5)
Vin9: Removing PWL point (3e-008,5)
Vin5: Removing PWL point (3e-008,5)
Vin1: Removing PWL point (3e-008,5)
Direct Newton iteration for .op point succeeded.

tf_g=5.55812e-008 FROM 4.44188e-008 TO 1e-007
tr_g=8.66801e-008 FROM 1.33199e-008 TO 1e-007
tf_l=8.91061e-008 FROM 1.08939e-008 TO 1e-007
tr_l=8.51056e-008 FROM 1.48944e-008 TO 1e-007

Measurement "tf_e" FAIL'ed
tr_e=5.49053e-008 FROM 4.50947e-008 TO 1e-007


Date: Tue Aug 20 21:25:10 2024
Total elapsed time: 1.698 seconds.

tnom = 27
temp = 27
method = modified trap
totiter = 3362
traniter = 3317
tranpoints = 1386
accept = 1260
rejected = 126
matrix size = 212
fillins = 320
solver = Normal
Thread vector: 1046.9/104.1[12] 146.4/39.0[12] 50.9/14.1[12] 2.5/6.3[1]  2592/500
Matrix Compiler1: 42.8 KB object code size  23.4/11.8/[5.9]
Matrix Compiler2: 30.8 KB object code size  9.2/9.5/[2.6]


