Circuit: *** SPICE deck for cell TwoInAND{lay} from library 2InputAND

Ignoring BSIM parameter XL
Ignoring BSIM parameter XW
Ignoring BSIM parameter XL
Ignoring BSIM parameter XW
Direct Newton iteration for .op point succeeded.

tf=1.44161e-007 FROM 1.05839e-007 TO 2.5e-007
tr=1.75067e-007 FROM 7.49325e-008 TO 2.5e-007


Date: Sun Aug 18 22:18:43 2024
Total elapsed time: 0.131 seconds.

tnom = 27
temp = 27
method = modified trap
totiter = 2650
traniter = 2638
tranpoints = 1185
accept = 1138
rejected = 47
matrix size = 9
fillins = 0
solver = Normal
Matrix Compiler1: 368 bytes object code size  0.1/0.1/[0.1]
Matrix Compiler2: 743 bytes object code size  0.1/0.1/[0.1]


